ieee39_zip_carga_110.pwf
TITU
IEEE 39 BUS SYSTEM - ZIP LOAD MODEL (40Z, 40I, 20P) - CARGA 110%
DOPC IMPR
(Op) E (Op) E (Op) E (Op) E (Op) E (Op) E (Op) E (Op) E (Op) E (Op) E
QLIM L CREM L CTAP L STEP L NEWT L MOCT L MOCG L MOCF L RCVG L RMON L
FILE L
99999
DBAR
(Num)OETGb(   nome   )Gl( V)( A)( Pg)( Qg)( Qn)( Qm)(Bc  )( Pl)( Ql)( Sh)Are(Vf)M(1)(2)(3)(4)(5)(6)(7)(8)(9)(10
    1   B BUS 01        1000   0                                            11000
    2   B BUS 02        1000   0                                            11000
    3   B BUS 03        1000   0                          354.2  2.6       11000
    4   B BUS 04        1000   0                           550. 202.4      11000
    5   B BUS 05        1000   0                                            11000
    6   B BUS 06        1000   0                                            11000
    7   B BUS 07        1000   0                          257.2  92.4      11000
    8   B BUS 08        1000   0                          574.2 193.6      11000
    9   B BUS 09        1000   0                                            11000
   10   B BUS 10        1000   0                                            11000
   11   B BUS 11        1000   0                                            11000
   12   B BUS 12        1000   0                            8.3  96.8      11000
   13   B BUS 13        1000   0                                            11000
   14   B BUS 14        1000   0                                            11000
   15   B BUS 15        1000   0                           352. 168.3      11000
   16   B BUS 16        1000   0                          361.9  35.5      11000
   17   B BUS 17        1000   0                                            11000
   18   B BUS 18        1000   0                          173.8  33.       11000
   19   B BUS 19        1000   0                                            11000
   20   B BUS 20        1000   0                          690.8 113.3      11000
   21   B BUS 21        1000   0                          301.4 126.5      11000
   22   B BUS 22        1000   0                                            11000
   23   B BUS 23        1000   0                          272.3  93.1      11000
   24   B BUS 24        1000   0                          339.5-101.2      11000
   25   B BUS 25        1000   0                          246.4  51.9      11000
   26   B BUS 26        1000   0                          152.9  18.7      11000
   27   B BUS 27        1000   0                          309.1  83.1      11000
   28   B BUS 28        1000   0                          226.6  30.4      11000
   29   B BUS 29        1000   0                          311.9  29.6      11000
   30  1A GEN 30        1048   0  250     -9999 9999                       11000
   31  2A GEN 31         982   0          -9999 9999       10.1  5.1       11000
   32  1A GEN 32         983   0  650     -9999 9999                       11000
   33  1A GEN 33         997   0  632     -9999 9999                       11000
   34  1A GEN 34        1012   0  508     -9999 9999                       11000
   35  1A GEN 35        1049   0  650     -9999 9999                       11000
   36  1A GEN 36        1064   0  560     -9999 9999                       11000
   37  1A GEN 37        1028   0  540     -9999 9999                       11000
   38  1A GEN 38        1027   0  830     -9999 9999                       11000
   39  1A GEN 39        1030   0 1000     -9999 9999     1214.4 275.       11000
99999
DLIN
(De )d O d(Pa )NcEP ( R% )( X% )(Mvar)(Tap)(Tmn)(Tmx)(Phs)(Bc  )(Cn)(Ce)Ns(Cq)(1)(2)(3)(4)(5)(6)(7)(8)(9)(10
    1         2 1      .35  4.11 69.87
    1        39 1      .10  2.50 75.00
    2         3 1      .13  1.51 25.72
    2        25 1      .70   .86 14.60
    3         4 1      .13  2.13 22.14
    3        18 1      .11  1.33 21.38
    4         5 1      .08  1.28 13.42
    4        14 1      .08  1.29 13.82
    5         6 1      .02   .26  4.34
    5         8 1      .08  1.12 14.76
    6         7 1      .06   .92 11.30
    6        11 1      .07   .82 13.89
    7         8 1      .04   .46  7.80
    8         9 1      .23  3.63 38.04
    9        39 1      .10  2.50 120.0
   10        11 1      .04   .43  7.29
   10        13 1      .04   .43  7.29
   13        14 1      .09  1.01 17.23
   14        15 1      .18  2.17 36.60
   15        16 1      .09   .94 17.10
   16        17 1      .07   .89 13.42
   16        19 1      .16  1.95 30.40
   16        21 1      .08  1.35 25.48
   16        24 1      .03   .59  6.80
   17        18 1      .07   .82 13.19
   17        27 1      .13  1.73 32.16
   21        22 1      .08  1.40 25.65
   22        23 1      .06   .96 18.46
   23        24 1      .22  3.50 36.10
   25        26 1      .32  3.23 51.30
   26        27 1      .14  1.47 23.96
   26        28 1      .43  4.74 78.02
   26        29 1      .57  6.25 102.9
   28        29 1      .14  1.51 24.90
   12        11 1      .16  4.35      1.006
   12        13 1      .16  4.35      1.006
    6        31 1           2.50      1.070
   10        32 1           2.00      1.070
   19        33 1      .07  1.42      1.070
   20        34 1      .09  1.80      1.009
   22        35 1           1.43      1.025
   23        36 1      .05  2.72      1.000
   25        37 1      .06  2.32      1.025
    2        30 1           1.81      1.025
   29        38 1      .08  1.56      1.025
   19        20 1      .07  1.38      1.060
99999
DGEI
(Bar)OM GrE Un UO UM Pg   Qg   Qn   Qm
   30 AS  1 L  1  1  1                                                                                                              2  1
   31 AS  1 L  1  1  1                                                                                                              6  1
   32 AS  1 L  1  1  1                                                                                                             10  1
   33 AS  1 L  1  1  1                                                                                                             19  1
   34 AS  1 L  1  1  1                                                                                                             20  1
   35 AS  1 L  1  1  1                                                                                                             22  1
   36 AS  1 L  1  1  1                                                                                                             23  1
   37 AS  1 L  1  1  1                                                                                                             25  1
   38 AS  1 L  1  1  1                                                                                                             29  1
   39 AS  1 L  1  1  1
99999
DCAR
(tp) ( no) C (tp) ( no) C (tp) ( no) C (tp) ( no)   (A) (B) (C) (D) (Vmn)
AREA     1                                           40  40  40  40 60.0
99999
ULOG
4
resultado_zip_110.txt
EXLF
RELA RBAR RLIN
FIM
